 &PACKAGES
 useMNC = .FALSE.,
 useDiagnostics = .TRUE.,
 /
