 &PACKAGES
 useOBCS=.TRUE.,
 useMNC=.FALSE.,
 useDiagnostics=.TRUE.,
 useRBCS=.TRUE.,
 /
